*Heading
** Job name: 2D_SHEAR_FORCE_ELASTIC_elemSize_5_160x120mm_intp_2_DIRECT Model name: 2D_SHEAR_FORCE_ELASTIC
** Generated by: Abaqus/CAE 2017
*Preprint, echo=NO, model=NO, history=NO, contact=NO
**
** PARTS
**
*Part, name=rectangular
*End Part
**  
**
** ASSEMBLY
**
*Assembly, name=Assembly
**  
*Instance, name=rectangularInstance, part=rectangular
*Node
      1,           0.,           0.
      2,           5.,           0.
      3,          10.,           0.
      4,          15.,           0.
      5,          20.,           0.
      6,          25.,           0.
      7,          30.,           0.
      8,          35.,           0.
      9,          40.,           0.
     10,          45.,           0.
     11,          50.,           0.
     12,          55.,           0.
     13,          60.,           0.
     14,          65.,           0.
     15,          70.,           0.
     16,          75.,           0.
     17,          80.,           0.
     18,          85.,           0.
     19,          90.,           0.
     20,          95.,           0.
** ... 2397 like lines cut
*Element, type=CPS8
  1,    1,    2,   35,   34,  826,  827,  828,  829
  2,    2,    3,   36,   35,  830,  831,  832,  827
  3,    3,    4,   37,   36,  833,  834,  835,  831
  4,    4,    5,   38,   37,  836,  837,  838,  834
  5,    5,    6,   39,   38,  839,  840,  841,  837
  6,    6,    7,   40,   39,  842,  843,  844,  840
  7,    7,    8,   41,   40,  845,  846,  847,  843
  8,    8,    9,   42,   41,  848,  849,  850,  846
  9,    9,   10,   43,   42,  851,  852,  853,  849
 10,   10,   11,   44,   43,  854,  855,  856,  852
 11,   11,   12,   45,   44,  857,  858,  859,  855
 12,   12,   13,   46,   45,  860,  861,  862,  858
 13,   13,   14,   47,   46,  863,  864,  865,  861
 14,   14,   15,   48,   47,  866,  867,  868,  864
 15,   15,   16,   49,   48,  869,  870,  871,  867
 16,   16,   17,   50,   49,  872,  873,  874,  870
 17,   17,   18,   51,   50,  875,  876,  877,  873
 18,   18,   19,   52,   51,  878,  879,  880,  876
 19,   19,   20,   53,   52,  881,  882,  883,  879
 20,   20,   21,   54,   53,  884,  885,  886,  882
** ... 748 like lines cut
*Nset, nset=_PickedSet2, internal, generate
    1,  2417,     1
*Elset, elset=_PickedSet2, internal, generate
   1,  768,    1
** Section: rectangularSection
*Solid Section, elset=_PickedSet2, material=Steel
1.,
*End Instance
**  
*Nset, nset=x_end, instance=rectangularInstance
   33,   66,   99,  132,  165,  198,  231,  264,  297,  330,  363,  396,  429,  462,  495,  528
  561,  594,  627,  660,  693,  726,  759,  792,  825,  921,  986, 1051, 1116, 1181, 1246, 1311
 1376, 1441, 1506, 1571, 1636, 1701, 1766, 1831, 1896, 1961, 2026, 2091, 2156, 2221, 2286, 2351
 2416,
*Elset, elset=x_end, instance=rectangularInstance, generate
  32,  768,   32
*Nset, nset=x_start, instance=rectangularInstance
    1,   34,   67,  100,  133,  166,  199,  232,  265,  298,  331,  364,  397,  430,  463,  496
  529,  562,  595,  628,  661,  694,  727,  760,  793,  829,  925,  990, 1055, 1120, 1185, 1250
 1315, 1380, 1445, 1510, 1575, 1640, 1705, 1770, 1835, 1900, 1965, 2030, 2095, 2160, 2225, 2290
 2355,
*Elset, elset=x_start, instance=rectangularInstance, generate
   1,  737,   32
*Nset, nset=y_end, instance=rectangularInstance
  793,  794,  795,  796,  797,  798,  799,  800,  801,  802,  803,  804,  805,  806,  807,  808
  809,  810,  811,  812,  813,  814,  815,  816,  817,  818,  819,  820,  821,  822,  823,  824
  825, 2354, 2357, 2359, 2361, 2363, 2365, 2367, 2369, 2371, 2373, 2375, 2377, 2379, 2381, 2383
 2385, 2387, 2389, 2391, 2393, 2395, 2397, 2399, 2401, 2403, 2405, 2407, 2409, 2411, 2413, 2415
 2417,
*Elset, elset=y_end, instance=rectangularInstance, generate
 737,  768,    1
*Nset, nset=y_start, instance=rectangularInstance
   1,   2,   3,   4,   5,   6,   7,   8,   9,  10,  11,  12,  13,  14,  15,  16
  17,  18,  19,  20,  21,  22,  23,  24,  25,  26,  27,  28,  29,  30,  31,  32
  33, 826, 830, 833, 836, 839, 842, 845, 848, 851, 854, 857, 860, 863, 866, 869
 872, 875, 878, 881, 884, 887, 890, 893, 896, 899, 902, 905, 908, 911, 914, 917
 920,
*Elset, elset=y_start, instance=rectangularInstance, generate
  1,  32,   1
*Elset, elset=__PickedSurf10_S2, internal, instance=rectangularInstance, generate
  32,  768,   32
*Surface, type=ELEMENT, name=_PickedSurf10, internal
__PickedSurf10_S2, S2
*End Assembly
** 
** MATERIALS
** 
*Material, name=Steel
*Density
 5e-09,
*Elastic
10000., 0.3
** 
** BOUNDARY CONDITIONS
** 
** Name: fix_x_end Type: Symmetry/Antisymmetry/Encastre
*Boundary
x_end, XSYMM
** Name: fix_x_start Type: Symmetry/Antisymmetry/Encastre
*Boundary
x_start, ZASYMM
** ----------------------------------------------------------------
** 
** STEP: Load
** 
*Step, name=Load, nlgeom=NO
Load.
*Static
1., 5., 1., 1.
** 
** LOADS
** 
** Name: load_x_end   Type: Surface traction
*Dsload, follower=NO, constant resultant=YES
_PickedSurf10, TRVEC, 500., 0., 1., 0.
** 
** OUTPUT REQUESTS
** 
*Restart, write, frequency=0
** 
** FIELD OUTPUT: F-Output-1
** 
*Output, field, variable=PRESELECT
** 
** HISTORY OUTPUT: H-Output-1
** 
*Output, history, variable=PRESELECT
*End Step
