*Heading
** Job name: 2D_SHEAR_FORCE_ELASTIC_elemSize_10_160x120mm_intp_2_DIRECT Model name: 2D_SHEAR_FORCE_ELASTIC
** Generated by: Abaqus/CAE 2017
*Preprint, echo=NO, model=NO, history=NO, contact=NO
**
** PARTS
**
*Part, name=rectangular
*End Part
**  
**
** ASSEMBLY
**
*Assembly, name=Assembly
**  
*Instance, name=rectangularInstance, part=rectangular
*Node
      1,           0.,           0.
      2,          10.,           0.
      3,          20.,           0.
      4,          30.,           0.
      5,          40.,           0.
      6,          50.,           0.
      7,          60.,           0.
      8,          70.,           0.
      9,          80.,           0.
     10,          90.,           0.
     11,         100.,           0.
     12,         110.,           0.
     13,         120.,           0.
     14,         130.,           0.
     15,         140.,           0.
     16,         150.,           0.
     17,         160.,           0.
     18,           0.,          10.
     19,          10.,          10.
     20,          20.,          10.
** ... 613 like lines cut
*Element, type=CPS8
  1,   1,   2,  19,  18, 222, 223, 224, 225
  2,   2,   3,  20,  19, 226, 227, 228, 223
  3,   3,   4,  21,  20, 229, 230, 231, 227
  4,   4,   5,  22,  21, 232, 233, 234, 230
  5,   5,   6,  23,  22, 235, 236, 237, 233
  6,   6,   7,  24,  23, 238, 239, 240, 236
  7,   7,   8,  25,  24, 241, 242, 243, 239
  8,   8,   9,  26,  25, 244, 245, 246, 242
  9,   9,  10,  27,  26, 247, 248, 249, 245
 10,  10,  11,  28,  27, 250, 251, 252, 248
 11,  11,  12,  29,  28, 253, 254, 255, 251
 12,  12,  13,  30,  29, 256, 257, 258, 254
 13,  13,  14,  31,  30, 259, 260, 261, 257
 14,  14,  15,  32,  31, 262, 263, 264, 260
 15,  15,  16,  33,  32, 265, 266, 267, 263
 16,  16,  17,  34,  33, 268, 269, 270, 266
 17,  18,  19,  36,  35, 224, 271, 272, 273
 18,  19,  20,  37,  36, 228, 274, 275, 271
 19,  20,  21,  38,  37, 231, 276, 277, 274
 20,  21,  22,  39,  38, 234, 278, 279, 276
** ... 172 like lines cut
*Nset, nset=_PickedSet2, internal, generate
   1,  633,    1
*Elset, elset=_PickedSet2, internal, generate
   1,  192,    1
** Section: rectangularSection
*Solid Section, elset=_PickedSet2, material=Steel
1.,
*End Instance
**  
*Nset, nset=x_end, instance=rectangularInstance
  17,  34,  51,  68,  85, 102, 119, 136, 153, 170, 187, 204, 221, 269, 302, 335
 368, 401, 434, 467, 500, 533, 566, 599, 632
*Elset, elset=x_end, instance=rectangularInstance, generate
  16,  192,   16
*Nset, nset=x_start, instance=rectangularInstance
   1,  18,  35,  52,  69,  86, 103, 120, 137, 154, 171, 188, 205, 225, 273, 306
 339, 372, 405, 438, 471, 504, 537, 570, 603
*Elset, elset=x_start, instance=rectangularInstance, generate
   1,  177,   16
*Nset, nset=y_end, instance=rectangularInstance
 205, 206, 207, 208, 209, 210, 211, 212, 213, 214, 215, 216, 217, 218, 219, 220
 221, 602, 605, 607, 609, 611, 613, 615, 617, 619, 621, 623, 625, 627, 629, 631
 633,
*Elset, elset=y_end, instance=rectangularInstance, generate
 177,  192,    1
*Nset, nset=y_start, instance=rectangularInstance
   1,   2,   3,   4,   5,   6,   7,   8,   9,  10,  11,  12,  13,  14,  15,  16
  17, 222, 226, 229, 232, 235, 238, 241, 244, 247, 250, 253, 256, 259, 262, 265
 268,
*Elset, elset=y_start, instance=rectangularInstance, generate
  1,  16,   1
*Elset, elset=__PickedSurf10_S2, internal, instance=rectangularInstance, generate
  16,  192,   16
*Surface, type=ELEMENT, name=_PickedSurf10, internal
__PickedSurf10_S2, S2
*End Assembly
** 
** MATERIALS
** 
*Material, name=Steel
*Density
 5e-09,
*Elastic
10000., 0.3
** 
** BOUNDARY CONDITIONS
** 
** Name: fix_x_end Type: Symmetry/Antisymmetry/Encastre
*Boundary
x_end, XSYMM
** Name: fix_x_start Type: Symmetry/Antisymmetry/Encastre
*Boundary
x_start, ZASYMM
** ----------------------------------------------------------------
** 
** STEP: Load
** 
*Step, name=Load, nlgeom=NO
Load.
*Static
1., 5., 1., 1.
** 
** LOADS
** 
** Name: load_x_end   Type: Surface traction
*Dsload, follower=NO, constant resultant=YES
_PickedSurf10, TRVEC, 500., 0., 1., 0.
** 
** OUTPUT REQUESTS
** 
*Restart, write, frequency=0
** 
** FIELD OUTPUT: F-Output-1
** 
*Output, field, variable=PRESELECT
** 
** HISTORY OUTPUT: H-Output-1
** 
*Output, history, variable=PRESELECT
*End Step
