*Heading
** Job name: 2D_SHEAR_FORCE_ELASTIC_elemSize_5_160x120mm_intp_1_DIRECT Model name: 2D_SHEAR_FORCE_ELASTIC
** Generated by: Abaqus/CAE 2017
*Preprint, echo=NO, model=NO, history=NO, contact=NO
**
** PARTS
**
*Part, name=rectangular
*End Part
**  
**
** ASSEMBLY
**
*Assembly, name=Assembly
**  
*Instance, name=rectangularInstance, part=rectangular
*Node
      1,           0.,           0.
      2,           5.,           0.
      3,          10.,           0.
      4,          15.,           0.
      5,          20.,           0.
      6,          25.,           0.
      7,          30.,           0.
      8,          35.,           0.
      9,          40.,           0.
     10,          45.,           0.
     11,          50.,           0.
     12,          55.,           0.
     13,          60.,           0.
     14,          65.,           0.
     15,          70.,           0.
     16,          75.,           0.
     17,          80.,           0.
     18,          85.,           0.
     19,          90.,           0.
     20,          95.,           0.
** ... 805 like lines cut
*Element, type=CPS4
  1,   1,   2,  35,  34
  2,   2,   3,  36,  35
  3,   3,   4,  37,  36
  4,   4,   5,  38,  37
  5,   5,   6,  39,  38
  6,   6,   7,  40,  39
  7,   7,   8,  41,  40
  8,   8,   9,  42,  41
  9,   9,  10,  43,  42
 10,  10,  11,  44,  43
 11,  11,  12,  45,  44
 12,  12,  13,  46,  45
 13,  13,  14,  47,  46
 14,  14,  15,  48,  47
 15,  15,  16,  49,  48
 16,  16,  17,  50,  49
 17,  17,  18,  51,  50
 18,  18,  19,  52,  51
 19,  19,  20,  53,  52
 20,  20,  21,  54,  53
** ... 748 like lines cut
*Nset, nset=_PickedSet2, internal, generate
   1,  825,    1
*Elset, elset=_PickedSet2, internal, generate
   1,  768,    1
** Section: rectangularSection
*Solid Section, elset=_PickedSet2, material=Steel
1.,
*End Instance
**  
*Nset, nset=x_end, instance=rectangularInstance, generate
  33,  825,   33
*Elset, elset=x_end, instance=rectangularInstance, generate
  32,  768,   32
*Nset, nset=x_start, instance=rectangularInstance, generate
   1,  793,   33
*Elset, elset=x_start, instance=rectangularInstance, generate
   1,  737,   32
*Nset, nset=y_end, instance=rectangularInstance, generate
 793,  825,    1
*Elset, elset=y_end, instance=rectangularInstance, generate
 737,  768,    1
*Nset, nset=y_start, instance=rectangularInstance, generate
  1,  33,   1
*Elset, elset=y_start, instance=rectangularInstance, generate
  1,  32,   1
*Elset, elset=__PickedSurf10_S2, internal, instance=rectangularInstance, generate
  32,  768,   32
*Surface, type=ELEMENT, name=_PickedSurf10, internal
__PickedSurf10_S2, S2
*End Assembly
** 
** MATERIALS
** 
*Material, name=Steel
*Density
 5e-09,
*Elastic
10000., 0.3
** 
** BOUNDARY CONDITIONS
** 
** Name: fix_x_end Type: Symmetry/Antisymmetry/Encastre
*Boundary
x_end, XSYMM
** Name: fix_x_start Type: Symmetry/Antisymmetry/Encastre
*Boundary
x_start, ZASYMM
** ----------------------------------------------------------------
** 
** STEP: Load
** 
*Step, name=Load, nlgeom=NO
Load.
*Static
1., 5., 1., 1.
** 
** LOADS
** 
** Name: load_x_end   Type: Surface traction
*Dsload, follower=NO, constant resultant=YES
_PickedSurf10, TRVEC, 500., 0., 1., 0.
** 
** OUTPUT REQUESTS
** 
*Restart, write, frequency=0
** 
** FIELD OUTPUT: F-Output-1
** 
*Output, field, variable=PRESELECT
** 
** HISTORY OUTPUT: H-Output-1
** 
*Output, history, variable=PRESELECT
*End Step
