*Heading
** Job name: 2D_UNIAX_ELASTIC_elem_10_160x120mm_intp_1_DIRECT Model name: 2D_UNIAX_ELASTIC
** Generated by: Abaqus/CAE 2017
*Preprint, echo=NO, model=NO, history=NO, contact=NO
**
** PARTS
**
*Part, name=rectangular
*End Part
**  
**
** ASSEMBLY
**
*Assembly, name=Assembly
**  
*Instance, name=rectangularInstance, part=rectangular
*Node
      1,           0.,           0.
      2,          10.,           0.
      3,          20.,           0.
      4,          30.,           0.
      5,          40.,           0.
      6,          50.,           0.
      7,          60.,           0.
      8,          70.,           0.
      9,          80.,           0.
     10,          90.,           0.
     11,         100.,           0.
     12,         110.,           0.
     13,         120.,           0.
     14,         130.,           0.
     15,         140.,           0.
     16,         150.,           0.
     17,         160.,           0.
     18,           0.,          10.
     19,          10.,          10.
     20,          20.,          10.
** ... 201 like lines cut
*Element, type=CPS4
  1,   1,   2,  19,  18
  2,   2,   3,  20,  19
  3,   3,   4,  21,  20
  4,   4,   5,  22,  21
  5,   5,   6,  23,  22
  6,   6,   7,  24,  23
  7,   7,   8,  25,  24
  8,   8,   9,  26,  25
  9,   9,  10,  27,  26
 10,  10,  11,  28,  27
 11,  11,  12,  29,  28
 12,  12,  13,  30,  29
 13,  13,  14,  31,  30
 14,  14,  15,  32,  31
 15,  15,  16,  33,  32
 16,  16,  17,  34,  33
 17,  18,  19,  36,  35
 18,  19,  20,  37,  36
 19,  20,  21,  38,  37
 20,  21,  22,  39,  38
** ... 172 like lines cut
*Nset, nset=_PickedSet2, internal, generate
   1,  221,    1
*Elset, elset=_PickedSet2, internal, generate
   1,  192,    1
** Section: rectangularSection
*Solid Section, elset=_PickedSet2, material=Steel
1.,
*End Instance
**  
*Nset, nset=x_end, instance=rectangularInstance, generate
  17,  221,   17
*Elset, elset=x_end, instance=rectangularInstance, generate
  16,  192,   16
*Nset, nset=x_start, instance=rectangularInstance, generate
   1,  205,   17
*Elset, elset=x_start, instance=rectangularInstance, generate
   1,  177,   16
*Nset, nset=y_end, instance=rectangularInstance, generate
 205,  221,    1
*Elset, elset=y_end, instance=rectangularInstance, generate
 177,  192,    1
*Nset, nset=y_start, instance=rectangularInstance, generate
  1,  17,   1
*Elset, elset=y_start, instance=rectangularInstance, generate
  1,  16,   1
*End Assembly
** 
** MATERIALS
** 
*Material, name=Steel
*Density
 5e-09,
*Elastic
10000., 0.3
** 
** BOUNDARY CONDITIONS
** 
** Name: fix_x Type: Symmetry/Antisymmetry/Encastre
*Boundary
x_start, XSYMM
** Name: fix_y Type: Symmetry/Antisymmetry/Encastre
*Boundary
y_start, YSYMM
** ----------------------------------------------------------------
** 
** STEP: Load
** 
*Step, name=Load, nlgeom=NO
Load.
*Static
1., 5., 1., 1.
** 
** BOUNDARY CONDITIONS
** 
** Name: move_x Type: Displacement/Rotation
*Boundary
x_end, 1, 1, 16.
** 
** OUTPUT REQUESTS
** 
*Restart, write, frequency=0
** 
** FIELD OUTPUT: F-Output-1
** 
*Output, field, variable=PRESELECT
** 
** HISTORY OUTPUT: H-Output-1
** 
*Output, history, variable=PRESELECT
*End Step
