*Heading
** Job name: 3D_UNIAX_ELASTIC_elem_20_160x120x120mm_intp_2_DIRECT Model name: 3D_UNIAX_ELASTIC
** Generated by: Abaqus/CAE 2017
*Preprint, echo=NO, model=NO, history=NO, contact=NO
**
** PARTS
**
*Part, name=rectangular
*End Part
**  
**
** ASSEMBLY
**
*Assembly, name=Assembly
**  
*Instance, name=rectangularInstance, part=rectangular
*Node
      1,         160.,         120.,         120.
      2,         160.,         100.,         120.
      3,         160.,          80.,         120.
      4,         160.,          60.,         120.
      5,         160.,          40.,         120.
      6,         160.,          20.,         120.
      7,         160.,           0.,         120.
      8,         160.,         120.,         100.
      9,         160.,         100.,         100.
     10,         160.,          80.,         100.
     11,         160.,          60.,         100.
     12,         160.,          40.,         100.
     13,         160.,          20.,         100.
     14,         160.,           0.,         100.
     15,         160.,         120.,          80.
     16,         160.,         100.,          80.
     17,         160.,          80.,          80.
     18,         160.,          60.,          80.
     19,         160.,          40.,          80.
     20,         160.,          20.,          80.
** ... 1569 like lines cut
*Element, type=C3D20
  1,   50,   51,   58,   57,    1,    2,    9,    8,  445,  444,  443,  442,  446,  447,  448,
      449,  451,  450,  452,  453
  2,   51,   52,   59,   58,    2,    3,   10,    9,  456,  455,  454,  444,  457,  458,  459,
      447,  450,  460,  461,  452
  3,   52,   53,   60,   59,    3,    4,   11,   10,  464,  463,  462,  455,  465,  466,  467,
      458,  460,  468,  469,  461
  4,   53,   54,   61,   60,    4,    5,   12,   11,  472,  471,  470,  463,  473,  474,  475,
      466,  468,  476,  477,  469
  5,   54,   55,   62,   61,    5,    6,   13,   12,  480,  479,  478,  471,  481,  482,  483,
      474,  476,  484,  485,  477
  6,   55,   56,   63,   62,    6,    7,   14,   13,  488,  487,  486,  479,  489,  490,  491,
      482,  484,  492,  493,  485
  7,   57,   58,   65,   64,    8,    9,   16,   15,  443,  496,  495,  494,  448,  497,  498,
      499,  453,  452,  500,  501
  8,   58,   59,   66,   65,    9,   10,   17,   16,  454,  503,  502,  496,  459,  504,  505,
      497,  452,  461,  506,  500
  9,   59,   60,   67,   66,   10,   11,   18,   17,  462,  508,  507,  503,  467,  509,  510,
      504,  461,  469,  511,  506
 10,   60,   61,   68,   67,   11,   12,   19,   18,  470,  513,  512,  508,  475,  514,  515,
      509,  469,  477,  516,  511
** ... 556 like lines cut
*Nset, nset=_G2, internal, generate
    1,  1589,     1
*Elset, elset=_G2, internal, generate
   1,  288,    1
** Section: rectangularSection
*Solid Section, elset=_G2, material=Steel
1.,
*End Instance
**  
*Nset, nset=_G3, internal, instance=rectangularInstance
  393,  394,  395,  396,  397,  398,  399,  400,  401,  402,  403,  404,  405,  406,  407,  408
  409,  410,  411,  412,  413,  414,  415,  416,  417,  418,  419,  420,  421,  422,  423,  424
  425,  426,  427,  428,  429,  430,  431,  432,  433,  434,  435,  436,  437,  438,  439,  440
  441, 1457, 1458, 1459, 1460, 1465, 1466, 1467, 1470, 1471, 1472, 1475, 1476, 1477, 1480, 1481
 1482, 1485, 1486, 1487, 1490, 1491, 1492, 1495, 1496, 1498, 1499, 1501, 1502, 1504, 1505, 1507
 1508, 1510, 1511, 1512, 1515, 1516, 1518, 1519, 1521, 1522, 1524, 1525, 1527, 1528, 1530, 1531
 1532, 1535, 1536, 1538, 1539, 1541, 1542, 1544, 1545, 1547, 1548, 1550, 1551, 1552, 1555, 1556
 1558, 1559, 1561, 1562, 1564, 1565, 1567, 1568, 1570, 1571, 1572, 1575, 1576, 1578, 1579, 1581
 1582, 1584, 1585, 1587, 1588
*Elset, elset=_G3, internal, instance=rectangularInstance, generate
 253,  288,    1
*Nset, nset=_G4, internal, instance=rectangularInstance
    7,   14,   21,   28,   35,   42,   49,   56,   63,   70,   77,   84,   91,   98,  105,  112
  119,  126,  133,  140,  147,  154,  161,  168,  175,  182,  189,  196,  203,  210,  217,  224
  231,  238,  245,  252,  259,  266,  273,  280,  287,  294,  301,  308,  315,  322,  329,  336
  343,  350,  357,  364,  371,  378,  385,  392,  399,  406,  413,  420,  427,  434,  441,  487
  490,  492,  493,  523,  524,  526,  556,  557,  559,  589,  590,  592,  622,  623,  625,  655
  656,  658,  688,  690,  691,  710,  711,  730,  731,  750,  751,  770,  771,  790,  791,  821
  823,  824,  843,  844,  863,  864,  883,  884,  903,  904,  923,  924,  954,  956,  957,  976
  977,  996,  997, 1016, 1017, 1036, 1037, 1056, 1057, 1087, 1089, 1090, 1109, 1110, 1129, 1130
 1149, 1150, 1169, 1170, 1189, 1190, 1220, 1222, 1223, 1242, 1243, 1262, 1263, 1282, 1283, 1302
 1303, 1322, 1323, 1353, 1355, 1356, 1375, 1376, 1395, 1396, 1415, 1416, 1435, 1436, 1455, 1456
 1486, 1488, 1489, 1508, 1509, 1528, 1529, 1548, 1549, 1568, 1569, 1588, 1589
*Elset, elset=_G4, internal, instance=rectangularInstance, generate
   6,  288,    6
*Nset, nset=_G5, internal, instance=rectangularInstance
   43,   44,   45,   46,   47,   48,   49,   92,   93,   94,   95,   96,   97,   98,  141,  142
  143,  144,  145,  146,  147,  190,  191,  192,  193,  194,  195,  196,  239,  240,  241,  242
  243,  244,  245,  288,  289,  290,  291,  292,  293,  294,  337,  338,  339,  340,  341,  342
  343,  386,  387,  388,  389,  390,  391,  392,  435,  436,  437,  438,  439,  440,  441,  627
  630,  632,  633,  634,  637,  638,  639,  642,  643,  644,  647,  648,  649,  652,  653,  654
  657,  658,  773,  775,  776,  777,  779,  780,  782,  783,  785,  786,  788,  789,  791,  906
  908,  909,  910,  912,  913,  915,  916,  918,  919,  921,  922,  924, 1039, 1041, 1042, 1043
 1045, 1046, 1048, 1049, 1051, 1052, 1054, 1055, 1057, 1172, 1174, 1175, 1176, 1178, 1179, 1181
 1182, 1184, 1185, 1187, 1188, 1190, 1305, 1307, 1308, 1309, 1311, 1312, 1314, 1315, 1317, 1318
 1320, 1321, 1323, 1438, 1440, 1441, 1442, 1444, 1445, 1447, 1448, 1450, 1451, 1453, 1454, 1456
 1571, 1573, 1574, 1575, 1577, 1578, 1580, 1581, 1583, 1584, 1586, 1587, 1589
*Elset, elset=_G5, internal, instance=rectangularInstance
  31,  32,  33,  34,  35,  36,  67,  68,  69,  70,  71,  72, 103, 104, 105, 106
 107, 108, 139, 140, 141, 142, 143, 144, 175, 176, 177, 178, 179, 180, 211, 212
 213, 214, 215, 216, 247, 248, 249, 250, 251, 252, 283, 284, 285, 286, 287, 288
*Nset, nset=_G6, internal, instance=rectangularInstance
   1,   2,   3,   4,   5,   6,   7,   8,   9,  10,  11,  12,  13,  14,  15,  16
  17,  18,  19,  20,  21,  22,  23,  24,  25,  26,  27,  28,  29,  30,  31,  32
  33,  34,  35,  36,  37,  38,  39,  40,  41,  42,  43,  44,  45,  46,  47,  48
  49, 446, 447, 448, 449, 457, 458, 459, 465, 466, 467, 473, 474, 475, 481, 482
 483, 489, 490, 491, 497, 498, 499, 504, 505, 509, 510, 514, 515, 519, 520, 524
 525, 530, 531, 532, 537, 538, 542, 543, 547, 548, 552, 553, 557, 558, 563, 564
 565, 570, 571, 575, 576, 580, 581, 585, 586, 590, 591, 596, 597, 598, 603, 604
 608, 609, 613, 614, 618, 619, 623, 624, 629, 630, 631, 636, 637, 641, 642, 646
 647, 651, 652, 656, 657
*Elset, elset=_G6, internal, instance=rectangularInstance, generate
  1,  36,   1
*End Assembly
** 
** MATERIALS
** 
*Material, name=Steel
*Density
 5e-09,
*Elastic
10000., 0.3
** 
** BOUNDARY CONDITIONS
** 
** Name: fix_x Type: Symmetry/Antisymmetry/Encastre
*Boundary
_G3, XSYMM
** Name: fix_y Type: Symmetry/Antisymmetry/Encastre
*Boundary
_G4, YSYMM
** Name: fix_z Type: Symmetry/Antisymmetry/Encastre
*Boundary
_G5, ZSYMM
** ----------------------------------------------------------------
** 
** STEP: Load
** 
*Step, name=Load, nlgeom=NO
Load.
*Static
1., 5., 1., 1.
** 
** BOUNDARY CONDITIONS
** 
** Name: move_x Type: Displacement/Rotation
*Boundary
_G6, 1, 1, 16.
** 
** OUTPUT REQUESTS
** 
*Restart, write, frequency=0
** 
** FIELD OUTPUT: F-Output-1
** 
*Output, field, variable=PRESELECT
** 
** HISTORY OUTPUT: H-Output-1
** 
*Output, history, variable=PRESELECT
*End Step
