*Heading
** Job name: 3D_UNIAX_ELASTIC_elem_10_160x120x120mm_intp_2_DIRECT Model name: 3D_UNIAX_ELASTIC
** Generated by: Abaqus/CAE 2017
*Preprint, echo=NO, model=NO, history=NO, contact=NO
**
** PARTS
**
*Part, name=rectangular
*End Part
**  
**
** ASSEMBLY
**
*Assembly, name=Assembly
**  
*Instance, name=rectangularInstance, part=rectangular
*Node
      1,         160.,         120.,         120.
      2,         160.,         110.,         120.
      3,         160.,         100.,         120.
      4,         160.,          90.,         120.
      5,         160.,          80.,         120.
      6,         160.,          70.,         120.
      7,         160.,          60.,         120.
      8,         160.,          50.,         120.
      9,         160.,          40.,         120.
     10,         160.,          30.,         120.
     11,         160.,          20.,         120.
     12,         160.,          10.,         120.
     13,         160.,           0.,         120.
     14,         160.,         120.,         110.
     15,         160.,         110.,         110.
     16,         160.,         100.,         110.
     17,         160.,          90.,         110.
     18,         160.,          80.,         110.
     19,         160.,          70.,         110.
     20,         160.,          60.,         110.
** ... 10861 like lines cut
*Element, type=C3D20
   1,   170,   171,   184,   183,     1,     2,    15,    14,  2877,  2876,  2875,  2874,  2878,  2879,  2880,
       2881,  2883,  2882,  2884,  2885
   2,   171,   172,   185,   184,     2,     3,    16,    15,  2888,  2887,  2886,  2876,  2889,  2890,  2891,
       2879,  2882,  2892,  2893,  2884
   3,   172,   173,   186,   185,     3,     4,    17,    16,  2896,  2895,  2894,  2887,  2897,  2898,  2899,
       2890,  2892,  2900,  2901,  2893
   4,   173,   174,   187,   186,     4,     5,    18,    17,  2904,  2903,  2902,  2895,  2905,  2906,  2907,
       2898,  2900,  2908,  2909,  2901
   5,   174,   175,   188,   187,     5,     6,    19,    18,  2912,  2911,  2910,  2903,  2913,  2914,  2915,
       2906,  2908,  2916,  2917,  2909
   6,   175,   176,   189,   188,     6,     7,    20,    19,  2920,  2919,  2918,  2911,  2921,  2922,  2923,
       2914,  2916,  2924,  2925,  2917
   7,   176,   177,   190,   189,     7,     8,    21,    20,  2928,  2927,  2926,  2919,  2929,  2930,  2931,
       2922,  2924,  2932,  2933,  2925
   8,   177,   178,   191,   190,     8,     9,    22,    21,  2936,  2935,  2934,  2927,  2937,  2938,  2939,
       2930,  2932,  2940,  2941,  2933
   9,   178,   179,   192,   191,     9,    10,    23,    22,  2944,  2943,  2942,  2935,  2945,  2946,  2947,
       2938,  2940,  2948,  2949,  2941
  10,   179,   180,   193,   192,    10,    11,    24,    23,  2952,  2951,  2950,  2943,  2953,  2954,  2955,
       2946,  2948,  2956,  2957,  2949
** ... 4588 like lines cut
*Nset, nset=_G2, internal, generate
     1,  10881,      1
*Elset, elset=_G2, internal, generate
    1,  2304,     1
** Section: rectangularSection
*Solid Section, elset=_G2, material=Steel
1.,
*End Instance
**  
*Nset, nset=_G3, internal, instance=rectangularInstance
  2705,  2706,  2707,  2708,  2709,  2710,  2711,  2712,  2713,  2714,  2715,  2716,  2717,  2718,  2719,  2720
  2721,  2722,  2723,  2724,  2725,  2726,  2727,  2728,  2729,  2730,  2731,  2732,  2733,  2734,  2735,  2736
  2737,  2738,  2739,  2740,  2741,  2742,  2743,  2744,  2745,  2746,  2747,  2748,  2749,  2750,  2751,  2752
  2753,  2754,  2755,  2756,  2757,  2758,  2759,  2760,  2761,  2762,  2763,  2764,  2765,  2766,  2767,  2768
  2769,  2770,  2771,  2772,  2773,  2774,  2775,  2776,  2777,  2778,  2779,  2780,  2781,  2782,  2783,  2784
  2785,  2786,  2787,  2788,  2789,  2790,  2791,  2792,  2793,  2794,  2795,  2796,  2797,  2798,  2799,  2800
  2801,  2802,  2803,  2804,  2805,  2806,  2807,  2808,  2809,  2810,  2811,  2812,  2813,  2814,  2815,  2816
  2817,  2818,  2819,  2820,  2821,  2822,  2823,  2824,  2825,  2826,  2827,  2828,  2829,  2830,  2831,  2832
  2833,  2834,  2835,  2836,  2837,  2838,  2839,  2840,  2841,  2842,  2843,  2844,  2845,  2846,  2847,  2848
  2849,  2850,  2851,  2852,  2853,  2854,  2855,  2856,  2857,  2858,  2859,  2860,  2861,  2862,  2863,  2864
  2865,  2866,  2867,  2868,  2869,  2870,  2871,  2872,  2873, 10401, 10402, 10403, 10404, 10409, 10410, 10411
 10414, 10415, 10416, 10419, 10420, 10421, 10424, 10425, 10426, 10429, 10430, 10431, 10434, 10435, 10436, 10439
 10440, 10441, 10444, 10445, 10446, 10449, 10450, 10451, 10454, 10455, 10456, 10459, 10460, 10461, 10464, 10465
 10466, 10469, 10470, 10472, 10473, 10475, 10476, 10478, 10479, 10481, 10482, 10484, 10485, 10487, 10488, 10490
 10491, 10493, 10494, 10496, 10497, 10499, 10500, 10502, 10503, 10504, 10507, 10508, 10510, 10511, 10513, 10514
 10516, 10517, 10519, 10520, 10522, 10523, 10525, 10526, 10528, 10529, 10531, 10532, 10534, 10535, 10537, 10538
 10540, 10541, 10542, 10545, 10546, 10548, 10549, 10551, 10552, 10554, 10555, 10557, 10558, 10560, 10561, 10563
 10564, 10566, 10567, 10569, 10570, 10572, 10573, 10575, 10576, 10578, 10579, 10580, 10583, 10584, 10586, 10587
 10589, 10590, 10592, 10593, 10595, 10596, 10598, 10599, 10601, 10602, 10604, 10605, 10607, 10608, 10610, 10611
 10613, 10614, 10616, 10617, 10618, 10621, 10622, 10624, 10625, 10627, 10628, 10630, 10631, 10633, 10634, 10636
** ... 11 like lines cut
*Elset, elset=_G3, internal, instance=rectangularInstance, generate
 2161,  2304,     1
*Nset, nset=_G4, internal, instance=rectangularInstance
    13,    26,    39,    52,    65,    78,    91,   104,   117,   130,   143,   156,   169,   182,   195,   208
   221,   234,   247,   260,   273,   286,   299,   312,   325,   338,   351,   364,   377,   390,   403,   416
   429,   442,   455,   468,   481,   494,   507,   520,   533,   546,   559,   572,   585,   598,   611,   624
   637,   650,   663,   676,   689,   702,   715,   728,   741,   754,   767,   780,   793,   806,   819,   832
   845,   858,   871,   884,   897,   910,   923,   936,   949,   962,   975,   988,  1001,  1014,  1027,  1040
  1053,  1066,  1079,  1092,  1105,  1118,  1131,  1144,  1157,  1170,  1183,  1196,  1209,  1222,  1235,  1248
  1261,  1274,  1287,  1300,  1313,  1326,  1339,  1352,  1365,  1378,  1391,  1404,  1417,  1430,  1443,  1456
  1469,  1482,  1495,  1508,  1521,  1534,  1547,  1560,  1573,  1586,  1599,  1612,  1625,  1638,  1651,  1664
  1677,  1690,  1703,  1716,  1729,  1742,  1755,  1768,  1781,  1794,  1807,  1820,  1833,  1846,  1859,  1872
  1885,  1898,  1911,  1924,  1937,  1950,  1963,  1976,  1989,  2002,  2015,  2028,  2041,  2054,  2067,  2080
  2093,  2106,  2119,  2132,  2145,  2158,  2171,  2184,  2197,  2210,  2223,  2236,  2249,  2262,  2275,  2288
  2301,  2314,  2327,  2340,  2353,  2366,  2379,  2392,  2405,  2418,  2431,  2444,  2457,  2470,  2483,  2496
  2509,  2522,  2535,  2548,  2561,  2574,  2587,  2600,  2613,  2626,  2639,  2652,  2665,  2678,  2691,  2704
  2717,  2730,  2743,  2756,  2769,  2782,  2795,  2808,  2821,  2834,  2847,  2860,  2873,  2967,  2970,  2972
  2973,  3033,  3034,  3036,  3096,  3097,  3099,  3159,  3160,  3162,  3222,  3223,  3225,  3285,  3286,  3288
  3348,  3349,  3351,  3411,  3412,  3414,  3474,  3475,  3477,  3537,  3538,  3540,  3600,  3601,  3603,  3663
  3664,  3666,  3726,  3728,  3729,  3766,  3767,  3804,  3805,  3842,  3843,  3880,  3881,  3918,  3919,  3956
  3957,  3994,  3995,  4032,  4033,  4070,  4071,  4108,  4109,  4146,  4147,  4207,  4209,  4210,  4247,  4248
  4285,  4286,  4323,  4324,  4361,  4362,  4399,  4400,  4437,  4438,  4475,  4476,  4513,  4514,  4551,  4552
  4589,  4590,  4627,  4628,  4688,  4690,  4691,  4728,  4729,  4766,  4767,  4804,  4805,  4842,  4843,  4880
** ... 20 like lines cut
*Elset, elset=_G4, internal, instance=rectangularInstance, generate
   12,  2304,    12
*Nset, nset=_G5, internal, instance=rectangularInstance
   157,   158,   159,   160,   161,   162,   163,   164,   165,   166,   167,   168,   169,   326,   327,   328
   329,   330,   331,   332,   333,   334,   335,   336,   337,   338,   495,   496,   497,   498,   499,   500
   501,   502,   503,   504,   505,   506,   507,   664,   665,   666,   667,   668,   669,   670,   671,   672
   673,   674,   675,   676,   833,   834,   835,   836,   837,   838,   839,   840,   841,   842,   843,   844
   845,  1002,  1003,  1004,  1005,  1006,  1007,  1008,  1009,  1010,  1011,  1012,  1013,  1014,  1171,  1172
  1173,  1174,  1175,  1176,  1177,  1178,  1179,  1180,  1181,  1182,  1183,  1340,  1341,  1342,  1343,  1344
  1345,  1346,  1347,  1348,  1349,  1350,  1351,  1352,  1509,  1510,  1511,  1512,  1513,  1514,  1515,  1516
  1517,  1518,  1519,  1520,  1521,  1678,  1679,  1680,  1681,  1682,  1683,  1684,  1685,  1686,  1687,  1688
  1689,  1690,  1847,  1848,  1849,  1850,  1851,  1852,  1853,  1854,  1855,  1856,  1857,  1858,  1859,  2016
  2017,  2018,  2019,  2020,  2021,  2022,  2023,  2024,  2025,  2026,  2027,  2028,  2185,  2186,  2187,  2188
  2189,  2190,  2191,  2192,  2193,  2194,  2195,  2196,  2197,  2354,  2355,  2356,  2357,  2358,  2359,  2360
  2361,  2362,  2363,  2364,  2365,  2366,  2523,  2524,  2525,  2526,  2527,  2528,  2529,  2530,  2531,  2532
  2533,  2534,  2535,  2692,  2693,  2694,  2695,  2696,  2697,  2698,  2699,  2700,  2701,  2702,  2703,  2704
  2861,  2862,  2863,  2864,  2865,  2866,  2867,  2868,  2869,  2870,  2871,  2872,  2873,  3605,  3608,  3610
  3611,  3612,  3615,  3616,  3617,  3620,  3621,  3622,  3625,  3626,  3627,  3630,  3631,  3632,  3635,  3636
  3637,  3640,  3641,  3642,  3645,  3646,  3647,  3650,  3651,  3652,  3655,  3656,  3657,  3660,  3661,  3662
  3665,  3666,  4111,  4113,  4114,  4115,  4117,  4118,  4120,  4121,  4123,  4124,  4126,  4127,  4129,  4130
  4132,  4133,  4135,  4136,  4138,  4139,  4141,  4142,  4144,  4145,  4147,  4592,  4594,  4595,  4596,  4598
  4599,  4601,  4602,  4604,  4605,  4607,  4608,  4610,  4611,  4613,  4614,  4616,  4617,  4619,  4620,  4622
  4623,  4625,  4626,  4628,  5073,  5075,  5076,  5077,  5079,  5080,  5082,  5083,  5085,  5086,  5088,  5089
** ... 20 like lines cut
*Elset, elset=_G5, internal, instance=rectangularInstance
  133,  134,  135,  136,  137,  138,  139,  140,  141,  142,  143,  144,  277,  278,  279,  280
  281,  282,  283,  284,  285,  286,  287,  288,  421,  422,  423,  424,  425,  426,  427,  428
  429,  430,  431,  432,  565,  566,  567,  568,  569,  570,  571,  572,  573,  574,  575,  576
  709,  710,  711,  712,  713,  714,  715,  716,  717,  718,  719,  720,  853,  854,  855,  856
  857,  858,  859,  860,  861,  862,  863,  864,  997,  998,  999, 1000, 1001, 1002, 1003, 1004
 1005, 1006, 1007, 1008, 1141, 1142, 1143, 1144, 1145, 1146, 1147, 1148, 1149, 1150, 1151, 1152
 1285, 1286, 1287, 1288, 1289, 1290, 1291, 1292, 1293, 1294, 1295, 1296, 1429, 1430, 1431, 1432
 1433, 1434, 1435, 1436, 1437, 1438, 1439, 1440, 1573, 1574, 1575, 1576, 1577, 1578, 1579, 1580
 1581, 1582, 1583, 1584, 1717, 1718, 1719, 1720, 1721, 1722, 1723, 1724, 1725, 1726, 1727, 1728
 1861, 1862, 1863, 1864, 1865, 1866, 1867, 1868, 1869, 1870, 1871, 1872, 2005, 2006, 2007, 2008
 2009, 2010, 2011, 2012, 2013, 2014, 2015, 2016, 2149, 2150, 2151, 2152, 2153, 2154, 2155, 2156
 2157, 2158, 2159, 2160, 2293, 2294, 2295, 2296, 2297, 2298, 2299, 2300, 2301, 2302, 2303, 2304
*Nset, nset=_G6, internal, instance=rectangularInstance
    1,    2,    3,    4,    5,    6,    7,    8,    9,   10,   11,   12,   13,   14,   15,   16
   17,   18,   19,   20,   21,   22,   23,   24,   25,   26,   27,   28,   29,   30,   31,   32
   33,   34,   35,   36,   37,   38,   39,   40,   41,   42,   43,   44,   45,   46,   47,   48
   49,   50,   51,   52,   53,   54,   55,   56,   57,   58,   59,   60,   61,   62,   63,   64
   65,   66,   67,   68,   69,   70,   71,   72,   73,   74,   75,   76,   77,   78,   79,   80
   81,   82,   83,   84,   85,   86,   87,   88,   89,   90,   91,   92,   93,   94,   95,   96
   97,   98,   99,  100,  101,  102,  103,  104,  105,  106,  107,  108,  109,  110,  111,  112
  113,  114,  115,  116,  117,  118,  119,  120,  121,  122,  123,  124,  125,  126,  127,  128
  129,  130,  131,  132,  133,  134,  135,  136,  137,  138,  139,  140,  141,  142,  143,  144
  145,  146,  147,  148,  149,  150,  151,  152,  153,  154,  155,  156,  157,  158,  159,  160
  161,  162,  163,  164,  165,  166,  167,  168,  169, 2878, 2879, 2880, 2881, 2889, 2890, 2891
 2897, 2898, 2899, 2905, 2906, 2907, 2913, 2914, 2915, 2921, 2922, 2923, 2929, 2930, 2931, 2937
 2938, 2939, 2945, 2946, 2947, 2953, 2954, 2955, 2961, 2962, 2963, 2969, 2970, 2971, 2977, 2978
 2979, 2984, 2985, 2989, 2990, 2994, 2995, 2999, 3000, 3004, 3005, 3009, 3010, 3014, 3015, 3019
 3020, 3024, 3025, 3029, 3030, 3034, 3035, 3040, 3041, 3042, 3047, 3048, 3052, 3053, 3057, 3058
 3062, 3063, 3067, 3068, 3072, 3073, 3077, 3078, 3082, 3083, 3087, 3088, 3092, 3093, 3097, 3098
 3103, 3104, 3105, 3110, 3111, 3115, 3116, 3120, 3121, 3125, 3126, 3130, 3131, 3135, 3136, 3140
 3141, 3145, 3146, 3150, 3151, 3155, 3156, 3160, 3161, 3166, 3167, 3168, 3173, 3174, 3178, 3179
 3183, 3184, 3188, 3189, 3193, 3194, 3198, 3199, 3203, 3204, 3208, 3209, 3213, 3214, 3218, 3219
 3223, 3224, 3229, 3230, 3231, 3236, 3237, 3241, 3242, 3246, 3247, 3251, 3252, 3256, 3257, 3261
** ... 11 like lines cut
*Elset, elset=_G6, internal, instance=rectangularInstance, generate
   1,  144,    1
*End Assembly
** 
** MATERIALS
** 
*Material, name=Steel
*Density
 5e-09,
*Elastic
10000., 0.3
** 
** BOUNDARY CONDITIONS
** 
** Name: fix_x Type: Symmetry/Antisymmetry/Encastre
*Boundary
_G3, XSYMM
** Name: fix_y Type: Symmetry/Antisymmetry/Encastre
*Boundary
_G4, YSYMM
** Name: fix_z Type: Symmetry/Antisymmetry/Encastre
*Boundary
_G5, ZSYMM
** ----------------------------------------------------------------
** 
** STEP: Load
** 
*Step, name=Load, nlgeom=NO
Load.
*Static
1., 5., 1., 1.
** 
** BOUNDARY CONDITIONS
** 
** Name: move_x Type: Displacement/Rotation
*Boundary
_G6, 1, 1, 16.
** 
** OUTPUT REQUESTS
** 
*Restart, write, frequency=0
** 
** FIELD OUTPUT: F-Output-1
** 
*Output, field, variable=PRESELECT
** 
** HISTORY OUTPUT: H-Output-1
** 
*Output, history, variable=PRESELECT
*End Step
