*Heading
** Job name: 3D_UNIAX_ELASTIC_elem_5_160x120x120mm_intp_1_DIRECT Model name: 3D_UNIAX_ELASTIC
** Generated by: Abaqus/CAE 2017
*Preprint, echo=NO, model=NO, history=NO, contact=NO
**
** PARTS
**
*Part, name=rectangular
*End Part
**  
**
** ASSEMBLY
**
*Assembly, name=Assembly
**  
*Instance, name=rectangularInstance, part=rectangular
*Node
      1,         160.,         120.,         120.
      2,         160.,         115.,         120.
      3,         160.,         110.,         120.
      4,         160.,         105.,         120.
      5,         160.,         100.,         120.
      6,         160.,          95.,         120.
      7,         160.,          90.,         120.
      8,         160.,          85.,         120.
      9,         160.,          80.,         120.
     10,         160.,          75.,         120.
     11,         160.,          70.,         120.
     12,         160.,          65.,         120.
     13,         160.,          60.,         120.
     14,         160.,          55.,         120.
     15,         160.,          50.,         120.
     16,         160.,          45.,         120.
     17,         160.,          40.,         120.
     18,         160.,          35.,         120.
     19,         160.,          30.,         120.
     20,         160.,          25.,         120.
** ... 20605 like lines cut
*Element, type=C3D8
    1,   626,   627,   652,   651,     1,     2,    27,    26
    2,   627,   628,   653,   652,     2,     3,    28,    27
    3,   628,   629,   654,   653,     3,     4,    29,    28
    4,   629,   630,   655,   654,     4,     5,    30,    29
    5,   630,   631,   656,   655,     5,     6,    31,    30
    6,   631,   632,   657,   656,     6,     7,    32,    31
    7,   632,   633,   658,   657,     7,     8,    33,    32
    8,   633,   634,   659,   658,     8,     9,    34,    33
    9,   634,   635,   660,   659,     9,    10,    35,    34
   10,   635,   636,   661,   660,    10,    11,    36,    35
   11,   636,   637,   662,   661,    11,    12,    37,    36
   12,   637,   638,   663,   662,    12,    13,    38,    37
   13,   638,   639,   664,   663,    13,    14,    39,    38
   14,   639,   640,   665,   664,    14,    15,    40,    39
   15,   640,   641,   666,   665,    15,    16,    41,    40
   16,   641,   642,   667,   666,    16,    17,    42,    41
   17,   642,   643,   668,   667,    17,    18,    43,    42
   18,   643,   644,   669,   668,    18,    19,    44,    43
   19,   644,   645,   670,   669,    19,    20,    45,    44
   20,   645,   646,   671,   670,    20,    21,    46,    45
** ... 18412 like lines cut
*Nset, nset=_G2, internal, generate
     1,  20625,      1
*Elset, elset=_G2, internal, generate
     1,  18432,      1
** Section: rectangularSection
*Solid Section, elset=_G2, material=Steel
1.,
*End Instance
**  
*Nset, nset=_G3, internal, instance=rectangularInstance, generate
 20001,  20625,      1
*Elset, elset=_G3, internal, instance=rectangularInstance, generate
 17857,  18432,      1
*Nset, nset=_G4, internal, instance=rectangularInstance, generate
    25,  20625,     25
*Elset, elset=_G4, internal, instance=rectangularInstance, generate
    24,  18432,     24
*Nset, nset=_G5, internal, instance=rectangularInstance
   601,   602,   603,   604,   605,   606,   607,   608,   609,   610,   611,   612,   613,   614,   615,   616
   617,   618,   619,   620,   621,   622,   623,   624,   625,  1226,  1227,  1228,  1229,  1230,  1231,  1232
  1233,  1234,  1235,  1236,  1237,  1238,  1239,  1240,  1241,  1242,  1243,  1244,  1245,  1246,  1247,  1248
  1249,  1250,  1851,  1852,  1853,  1854,  1855,  1856,  1857,  1858,  1859,  1860,  1861,  1862,  1863,  1864
  1865,  1866,  1867,  1868,  1869,  1870,  1871,  1872,  1873,  1874,  1875,  2476,  2477,  2478,  2479,  2480
  2481,  2482,  2483,  2484,  2485,  2486,  2487,  2488,  2489,  2490,  2491,  2492,  2493,  2494,  2495,  2496
  2497,  2498,  2499,  2500,  3101,  3102,  3103,  3104,  3105,  3106,  3107,  3108,  3109,  3110,  3111,  3112
  3113,  3114,  3115,  3116,  3117,  3118,  3119,  3120,  3121,  3122,  3123,  3124,  3125,  3726,  3727,  3728
  3729,  3730,  3731,  3732,  3733,  3734,  3735,  3736,  3737,  3738,  3739,  3740,  3741,  3742,  3743,  3744
  3745,  3746,  3747,  3748,  3749,  3750,  4351,  4352,  4353,  4354,  4355,  4356,  4357,  4358,  4359,  4360
  4361,  4362,  4363,  4364,  4365,  4366,  4367,  4368,  4369,  4370,  4371,  4372,  4373,  4374,  4375,  4976
  4977,  4978,  4979,  4980,  4981,  4982,  4983,  4984,  4985,  4986,  4987,  4988,  4989,  4990,  4991,  4992
  4993,  4994,  4995,  4996,  4997,  4998,  4999,  5000,  5601,  5602,  5603,  5604,  5605,  5606,  5607,  5608
  5609,  5610,  5611,  5612,  5613,  5614,  5615,  5616,  5617,  5618,  5619,  5620,  5621,  5622,  5623,  5624
  5625,  6226,  6227,  6228,  6229,  6230,  6231,  6232,  6233,  6234,  6235,  6236,  6237,  6238,  6239,  6240
  6241,  6242,  6243,  6244,  6245,  6246,  6247,  6248,  6249,  6250,  6851,  6852,  6853,  6854,  6855,  6856
  6857,  6858,  6859,  6860,  6861,  6862,  6863,  6864,  6865,  6866,  6867,  6868,  6869,  6870,  6871,  6872
  6873,  6874,  6875,  7476,  7477,  7478,  7479,  7480,  7481,  7482,  7483,  7484,  7485,  7486,  7487,  7488
  7489,  7490,  7491,  7492,  7493,  7494,  7495,  7496,  7497,  7498,  7499,  7500,  8101,  8102,  8103,  8104
  8105,  8106,  8107,  8108,  8109,  8110,  8111,  8112,  8113,  8114,  8115,  8116,  8117,  8118,  8119,  8120
** ... 32 like lines cut
*Elset, elset=_G5, internal, instance=rectangularInstance
   553,   554,   555,   556,   557,   558,   559,   560,   561,   562,   563,   564,   565,   566,   567,   568
   569,   570,   571,   572,   573,   574,   575,   576,  1129,  1130,  1131,  1132,  1133,  1134,  1135,  1136
  1137,  1138,  1139,  1140,  1141,  1142,  1143,  1144,  1145,  1146,  1147,  1148,  1149,  1150,  1151,  1152
  1705,  1706,  1707,  1708,  1709,  1710,  1711,  1712,  1713,  1714,  1715,  1716,  1717,  1718,  1719,  1720
  1721,  1722,  1723,  1724,  1725,  1726,  1727,  1728,  2281,  2282,  2283,  2284,  2285,  2286,  2287,  2288
  2289,  2290,  2291,  2292,  2293,  2294,  2295,  2296,  2297,  2298,  2299,  2300,  2301,  2302,  2303,  2304
  2857,  2858,  2859,  2860,  2861,  2862,  2863,  2864,  2865,  2866,  2867,  2868,  2869,  2870,  2871,  2872
  2873,  2874,  2875,  2876,  2877,  2878,  2879,  2880,  3433,  3434,  3435,  3436,  3437,  3438,  3439,  3440
  3441,  3442,  3443,  3444,  3445,  3446,  3447,  3448,  3449,  3450,  3451,  3452,  3453,  3454,  3455,  3456
  4009,  4010,  4011,  4012,  4013,  4014,  4015,  4016,  4017,  4018,  4019,  4020,  4021,  4022,  4023,  4024
  4025,  4026,  4027,  4028,  4029,  4030,  4031,  4032,  4585,  4586,  4587,  4588,  4589,  4590,  4591,  4592
  4593,  4594,  4595,  4596,  4597,  4598,  4599,  4600,  4601,  4602,  4603,  4604,  4605,  4606,  4607,  4608
  5161,  5162,  5163,  5164,  5165,  5166,  5167,  5168,  5169,  5170,  5171,  5172,  5173,  5174,  5175,  5176
  5177,  5178,  5179,  5180,  5181,  5182,  5183,  5184,  5737,  5738,  5739,  5740,  5741,  5742,  5743,  5744
  5745,  5746,  5747,  5748,  5749,  5750,  5751,  5752,  5753,  5754,  5755,  5756,  5757,  5758,  5759,  5760
  6313,  6314,  6315,  6316,  6317,  6318,  6319,  6320,  6321,  6322,  6323,  6324,  6325,  6326,  6327,  6328
  6329,  6330,  6331,  6332,  6333,  6334,  6335,  6336,  6889,  6890,  6891,  6892,  6893,  6894,  6895,  6896
  6897,  6898,  6899,  6900,  6901,  6902,  6903,  6904,  6905,  6906,  6907,  6908,  6909,  6910,  6911,  6912
  7465,  7466,  7467,  7468,  7469,  7470,  7471,  7472,  7473,  7474,  7475,  7476,  7477,  7478,  7479,  7480
  7481,  7482,  7483,  7484,  7485,  7486,  7487,  7488,  8041,  8042,  8043,  8044,  8045,  8046,  8047,  8048
** ... 28 like lines cut
*Nset, nset=_G6, internal, instance=rectangularInstance, generate
   1,  625,    1
*Elset, elset=_G6, internal, instance=rectangularInstance, generate
   1,  576,    1
*End Assembly
** 
** MATERIALS
** 
*Material, name=Steel
*Density
 5e-09,
*Elastic
10000., 0.3
** 
** BOUNDARY CONDITIONS
** 
** Name: fix_x Type: Symmetry/Antisymmetry/Encastre
*Boundary
_G3, XSYMM
** Name: fix_y Type: Symmetry/Antisymmetry/Encastre
*Boundary
_G4, YSYMM
** Name: fix_z Type: Symmetry/Antisymmetry/Encastre
*Boundary
_G5, ZSYMM
** ----------------------------------------------------------------
** 
** STEP: Load
** 
*Step, name=Load, nlgeom=NO
Load.
*Static
1., 5., 1., 1.
** 
** BOUNDARY CONDITIONS
** 
** Name: move_x Type: Displacement/Rotation
*Boundary
_G6, 1, 1, 16.
** 
** OUTPUT REQUESTS
** 
*Restart, write, frequency=0
** 
** FIELD OUTPUT: F-Output-1
** 
*Output, field, variable=PRESELECT
** 
** HISTORY OUTPUT: H-Output-1
** 
*Output, history, variable=PRESELECT
*End Step
