*Heading
** Job name: 3D_UNIAX_ELASTIC_elem_20_160x120x120mm_intp_1_DIRECT Model name: 3D_UNIAX_ELASTIC
** Generated by: Abaqus/CAE 2017
*Preprint, echo=NO, model=NO, history=NO, contact=NO
**
** PARTS
**
*Part, name=rectangular
*End Part
**  
**
** ASSEMBLY
**
*Assembly, name=Assembly
**  
*Instance, name=rectangularInstance, part=rectangular
*Node
      1,         160.,         120.,         120.
      2,         160.,         100.,         120.
      3,         160.,          80.,         120.
      4,         160.,          60.,         120.
      5,         160.,          40.,         120.
      6,         160.,          20.,         120.
      7,         160.,           0.,         120.
      8,         160.,         120.,         100.
      9,         160.,         100.,         100.
     10,         160.,          80.,         100.
     11,         160.,          60.,         100.
     12,         160.,          40.,         100.
     13,         160.,          20.,         100.
     14,         160.,           0.,         100.
     15,         160.,         120.,          80.
     16,         160.,         100.,          80.
     17,         160.,          80.,          80.
     18,         160.,          60.,          80.
     19,         160.,          40.,          80.
     20,         160.,          20.,          80.
** ... 421 like lines cut
*Element, type=C3D8
  1,  50,  51,  58,  57,   1,   2,   9,   8
  2,  51,  52,  59,  58,   2,   3,  10,   9
  3,  52,  53,  60,  59,   3,   4,  11,  10
  4,  53,  54,  61,  60,   4,   5,  12,  11
  5,  54,  55,  62,  61,   5,   6,  13,  12
  6,  55,  56,  63,  62,   6,   7,  14,  13
  7,  57,  58,  65,  64,   8,   9,  16,  15
  8,  58,  59,  66,  65,   9,  10,  17,  16
  9,  59,  60,  67,  66,  10,  11,  18,  17
 10,  60,  61,  68,  67,  11,  12,  19,  18
 11,  61,  62,  69,  68,  12,  13,  20,  19
 12,  62,  63,  70,  69,  13,  14,  21,  20
 13,  64,  65,  72,  71,  15,  16,  23,  22
 14,  65,  66,  73,  72,  16,  17,  24,  23
 15,  66,  67,  74,  73,  17,  18,  25,  24
 16,  67,  68,  75,  74,  18,  19,  26,  25
 17,  68,  69,  76,  75,  19,  20,  27,  26
 18,  69,  70,  77,  76,  20,  21,  28,  27
 19,  71,  72,  79,  78,  22,  23,  30,  29
 20,  72,  73,  80,  79,  23,  24,  31,  30
** ... 268 like lines cut
*Nset, nset=_G2, internal, generate
   1,  441,    1
*Elset, elset=_G2, internal, generate
   1,  288,    1
** Section: rectangularSection
*Solid Section, elset=_G2, material=Steel
1.,
*End Instance
**  
*Nset, nset=_G3, internal, instance=rectangularInstance, generate
 393,  441,    1
*Elset, elset=_G3, internal, instance=rectangularInstance, generate
 253,  288,    1
*Nset, nset=_G4, internal, instance=rectangularInstance, generate
   7,  441,    7
*Elset, elset=_G4, internal, instance=rectangularInstance, generate
   6,  288,    6
*Nset, nset=_G5, internal, instance=rectangularInstance
  43,  44,  45,  46,  47,  48,  49,  92,  93,  94,  95,  96,  97,  98, 141, 142
 143, 144, 145, 146, 147, 190, 191, 192, 193, 194, 195, 196, 239, 240, 241, 242
 243, 244, 245, 288, 289, 290, 291, 292, 293, 294, 337, 338, 339, 340, 341, 342
 343, 386, 387, 388, 389, 390, 391, 392, 435, 436, 437, 438, 439, 440, 441
*Elset, elset=_G5, internal, instance=rectangularInstance
  31,  32,  33,  34,  35,  36,  67,  68,  69,  70,  71,  72, 103, 104, 105, 106
 107, 108, 139, 140, 141, 142, 143, 144, 175, 176, 177, 178, 179, 180, 211, 212
 213, 214, 215, 216, 247, 248, 249, 250, 251, 252, 283, 284, 285, 286, 287, 288
*Nset, nset=_G6, internal, instance=rectangularInstance, generate
  1,  49,   1
*Elset, elset=_G6, internal, instance=rectangularInstance, generate
  1,  36,   1
*End Assembly
** 
** MATERIALS
** 
*Material, name=Steel
*Density
 5e-09,
*Elastic
10000., 0.3
** 
** BOUNDARY CONDITIONS
** 
** Name: fix_x Type: Symmetry/Antisymmetry/Encastre
*Boundary
_G3, XSYMM
** Name: fix_y Type: Symmetry/Antisymmetry/Encastre
*Boundary
_G4, YSYMM
** Name: fix_z Type: Symmetry/Antisymmetry/Encastre
*Boundary
_G5, ZSYMM
** ----------------------------------------------------------------
** 
** STEP: Load
** 
*Step, name=Load, nlgeom=NO
Load.
*Static
1., 5., 1., 1.
** 
** BOUNDARY CONDITIONS
** 
** Name: move_x Type: Displacement/Rotation
*Boundary
_G6, 1, 1, 16.
** 
** OUTPUT REQUESTS
** 
*Restart, write, frequency=0
** 
** FIELD OUTPUT: F-Output-1
** 
*Output, field, variable=PRESELECT
** 
** HISTORY OUTPUT: H-Output-1
** 
*Output, history, variable=PRESELECT
*End Step
