*Heading
** Job name: 3D_UNIAX_ELASTIC_elem_10_160x120x120mm_intp_1_DIRECT Model name: 3D_UNIAX_ELASTIC
** Generated by: Abaqus/CAE 2017
*Preprint, echo=NO, model=NO, history=NO, contact=NO
**
** PARTS
**
*Part, name=rectangular
*End Part
**  
**
** ASSEMBLY
**
*Assembly, name=Assembly
**  
*Instance, name=rectangularInstance, part=rectangular
*Node
      1,         160.,         120.,         120.
      2,         160.,         110.,         120.
      3,         160.,         100.,         120.
      4,         160.,          90.,         120.
      5,         160.,          80.,         120.
      6,         160.,          70.,         120.
      7,         160.,          60.,         120.
      8,         160.,          50.,         120.
      9,         160.,          40.,         120.
     10,         160.,          30.,         120.
     11,         160.,          20.,         120.
     12,         160.,          10.,         120.
     13,         160.,           0.,         120.
     14,         160.,         120.,         110.
     15,         160.,         110.,         110.
     16,         160.,         100.,         110.
     17,         160.,          90.,         110.
     18,         160.,          80.,         110.
     19,         160.,          70.,         110.
     20,         160.,          60.,         110.
** ... 2853 like lines cut
*Element, type=C3D8
   1,  170,  171,  184,  183,    1,    2,   15,   14
   2,  171,  172,  185,  184,    2,    3,   16,   15
   3,  172,  173,  186,  185,    3,    4,   17,   16
   4,  173,  174,  187,  186,    4,    5,   18,   17
   5,  174,  175,  188,  187,    5,    6,   19,   18
   6,  175,  176,  189,  188,    6,    7,   20,   19
   7,  176,  177,  190,  189,    7,    8,   21,   20
   8,  177,  178,  191,  190,    8,    9,   22,   21
   9,  178,  179,  192,  191,    9,   10,   23,   22
  10,  179,  180,  193,  192,   10,   11,   24,   23
  11,  180,  181,  194,  193,   11,   12,   25,   24
  12,  181,  182,  195,  194,   12,   13,   26,   25
  13,  183,  184,  197,  196,   14,   15,   28,   27
  14,  184,  185,  198,  197,   15,   16,   29,   28
  15,  185,  186,  199,  198,   16,   17,   30,   29
  16,  186,  187,  200,  199,   17,   18,   31,   30
  17,  187,  188,  201,  200,   18,   19,   32,   31
  18,  188,  189,  202,  201,   19,   20,   33,   32
  19,  189,  190,  203,  202,   20,   21,   34,   33
  20,  190,  191,  204,  203,   21,   22,   35,   34
** ... 2284 like lines cut
*Nset, nset=_G2, internal, generate
    1,  2873,     1
*Elset, elset=_G2, internal, generate
    1,  2304,     1
** Section: rectangularSection
*Solid Section, elset=_G2, material=Steel
1.,
*End Instance
**  
*Nset, nset=_G3, internal, instance=rectangularInstance, generate
 2705,  2873,     1
*Elset, elset=_G3, internal, instance=rectangularInstance, generate
 2161,  2304,     1
*Nset, nset=_G4, internal, instance=rectangularInstance, generate
   13,  2873,    13
*Elset, elset=_G4, internal, instance=rectangularInstance, generate
   12,  2304,    12
*Nset, nset=_G5, internal, instance=rectangularInstance
  157,  158,  159,  160,  161,  162,  163,  164,  165,  166,  167,  168,  169,  326,  327,  328
  329,  330,  331,  332,  333,  334,  335,  336,  337,  338,  495,  496,  497,  498,  499,  500
  501,  502,  503,  504,  505,  506,  507,  664,  665,  666,  667,  668,  669,  670,  671,  672
  673,  674,  675,  676,  833,  834,  835,  836,  837,  838,  839,  840,  841,  842,  843,  844
  845, 1002, 1003, 1004, 1005, 1006, 1007, 1008, 1009, 1010, 1011, 1012, 1013, 1014, 1171, 1172
 1173, 1174, 1175, 1176, 1177, 1178, 1179, 1180, 1181, 1182, 1183, 1340, 1341, 1342, 1343, 1344
 1345, 1346, 1347, 1348, 1349, 1350, 1351, 1352, 1509, 1510, 1511, 1512, 1513, 1514, 1515, 1516
 1517, 1518, 1519, 1520, 1521, 1678, 1679, 1680, 1681, 1682, 1683, 1684, 1685, 1686, 1687, 1688
 1689, 1690, 1847, 1848, 1849, 1850, 1851, 1852, 1853, 1854, 1855, 1856, 1857, 1858, 1859, 2016
 2017, 2018, 2019, 2020, 2021, 2022, 2023, 2024, 2025, 2026, 2027, 2028, 2185, 2186, 2187, 2188
 2189, 2190, 2191, 2192, 2193, 2194, 2195, 2196, 2197, 2354, 2355, 2356, 2357, 2358, 2359, 2360
 2361, 2362, 2363, 2364, 2365, 2366, 2523, 2524, 2525, 2526, 2527, 2528, 2529, 2530, 2531, 2532
 2533, 2534, 2535, 2692, 2693, 2694, 2695, 2696, 2697, 2698, 2699, 2700, 2701, 2702, 2703, 2704
 2861, 2862, 2863, 2864, 2865, 2866, 2867, 2868, 2869, 2870, 2871, 2872, 2873
*Elset, elset=_G5, internal, instance=rectangularInstance
  133,  134,  135,  136,  137,  138,  139,  140,  141,  142,  143,  144,  277,  278,  279,  280
  281,  282,  283,  284,  285,  286,  287,  288,  421,  422,  423,  424,  425,  426,  427,  428
  429,  430,  431,  432,  565,  566,  567,  568,  569,  570,  571,  572,  573,  574,  575,  576
  709,  710,  711,  712,  713,  714,  715,  716,  717,  718,  719,  720,  853,  854,  855,  856
  857,  858,  859,  860,  861,  862,  863,  864,  997,  998,  999, 1000, 1001, 1002, 1003, 1004
 1005, 1006, 1007, 1008, 1141, 1142, 1143, 1144, 1145, 1146, 1147, 1148, 1149, 1150, 1151, 1152
 1285, 1286, 1287, 1288, 1289, 1290, 1291, 1292, 1293, 1294, 1295, 1296, 1429, 1430, 1431, 1432
 1433, 1434, 1435, 1436, 1437, 1438, 1439, 1440, 1573, 1574, 1575, 1576, 1577, 1578, 1579, 1580
 1581, 1582, 1583, 1584, 1717, 1718, 1719, 1720, 1721, 1722, 1723, 1724, 1725, 1726, 1727, 1728
 1861, 1862, 1863, 1864, 1865, 1866, 1867, 1868, 1869, 1870, 1871, 1872, 2005, 2006, 2007, 2008
 2009, 2010, 2011, 2012, 2013, 2014, 2015, 2016, 2149, 2150, 2151, 2152, 2153, 2154, 2155, 2156
 2157, 2158, 2159, 2160, 2293, 2294, 2295, 2296, 2297, 2298, 2299, 2300, 2301, 2302, 2303, 2304
*Nset, nset=_G6, internal, instance=rectangularInstance, generate
   1,  169,    1
*Elset, elset=_G6, internal, instance=rectangularInstance, generate
   1,  144,    1
*End Assembly
** 
** MATERIALS
** 
*Material, name=Steel
*Density
 5e-09,
*Elastic
10000., 0.3
** 
** BOUNDARY CONDITIONS
** 
** Name: fix_x Type: Symmetry/Antisymmetry/Encastre
*Boundary
_G3, XSYMM
** Name: fix_y Type: Symmetry/Antisymmetry/Encastre
*Boundary
_G4, YSYMM
** Name: fix_z Type: Symmetry/Antisymmetry/Encastre
*Boundary
_G5, ZSYMM
** ----------------------------------------------------------------
** 
** STEP: Load
** 
*Step, name=Load, nlgeom=NO
Load.
*Static
1., 5., 1., 1.
** 
** BOUNDARY CONDITIONS
** 
** Name: move_x Type: Displacement/Rotation
*Boundary
_G6, 1, 1, 16.
** 
** OUTPUT REQUESTS
** 
*Restart, write, frequency=0
** 
** FIELD OUTPUT: F-Output-1
** 
*Output, field, variable=PRESELECT
** 
** HISTORY OUTPUT: H-Output-1
** 
*Output, history, variable=PRESELECT
*End Step
