*Heading
** Job name: 2D_UNIAX_FORCE_ELASTIC_elem_20_160x120mm_intp_1_DIRECT Model name: 2D_UNIAX_FORCE_ELASTIC
** Generated by: Abaqus/CAE 2017
*Preprint, echo=NO, model=NO, history=NO, contact=NO
**
** PARTS
**
*Part, name=rectangular
*End Part
**  
**
** ASSEMBLY
**
*Assembly, name=Assembly
**  
*Instance, name=rectangularInstance, part=rectangular
*Node
      1,           0.,           0.
      2,          20.,           0.
      3,          40.,           0.
      4,          60.,           0.
      5,          80.,           0.
      6,         100.,           0.
      7,         120.,           0.
      8,         140.,           0.
      9,         160.,           0.
     10,           0.,          20.
     11,          20.,          20.
     12,          40.,          20.
     13,          60.,          20.
     14,          80.,          20.
     15,         100.,          20.
     16,         120.,          20.
     17,         140.,          20.
     18,         160.,          20.
     19,           0.,          40.
     20,          20.,          40.
** ... 43 like lines cut
*Element, type=CPS4
 1,  1,  2, 11, 10
 2,  2,  3, 12, 11
 3,  3,  4, 13, 12
 4,  4,  5, 14, 13
 5,  5,  6, 15, 14
 6,  6,  7, 16, 15
 7,  7,  8, 17, 16
 8,  8,  9, 18, 17
 9, 10, 11, 20, 19
10, 11, 12, 21, 20
11, 12, 13, 22, 21
12, 13, 14, 23, 22
13, 14, 15, 24, 23
14, 15, 16, 25, 24
15, 16, 17, 26, 25
16, 17, 18, 27, 26
17, 19, 20, 29, 28
18, 20, 21, 30, 29
19, 21, 22, 31, 30
20, 22, 23, 32, 31
** ... 28 like lines cut
*Nset, nset=_PickedSet2, internal, generate
  1,  63,   1
*Elset, elset=_PickedSet2, internal, generate
  1,  48,   1
** Section: rectangularSection
*Solid Section, elset=_PickedSet2, material=Steel
1.,
*End Instance
**  
*Nset, nset=x_end, instance=rectangularInstance, generate
  9,  63,   9
*Elset, elset=x_end, instance=rectangularInstance, generate
  8,  48,   8
*Nset, nset=x_start, instance=rectangularInstance, generate
  1,  55,   9
*Elset, elset=x_start, instance=rectangularInstance, generate
  1,  41,   8
*Nset, nset=y_end, instance=rectangularInstance, generate
 55,  63,   1
*Elset, elset=y_end, instance=rectangularInstance, generate
 41,  48,   1
*Nset, nset=y_start, instance=rectangularInstance, generate
 1,  9,  1
*Elset, elset=y_start, instance=rectangularInstance, generate
 1,  8,  1
*Elset, elset=__PickedSurf10_S2, internal, instance=rectangularInstance, generate
  8,  48,   8
*Surface, type=ELEMENT, name=_PickedSurf10, internal
__PickedSurf10_S2, S2
*End Assembly
** 
** MATERIALS
** 
*Material, name=Steel
*Density
 5e-09,
*Elastic
10000., 0.3
** 
** BOUNDARY CONDITIONS
** 
** Name: fix_x Type: Symmetry/Antisymmetry/Encastre
*Boundary
x_start, XSYMM
** Name: fix_y Type: Symmetry/Antisymmetry/Encastre
*Boundary
y_start, YSYMM
** ----------------------------------------------------------------
** 
** STEP: Load
** 
*Step, name=Load, nlgeom=NO
Load.
*Static
1., 5., 1., 1.
** 
** LOADS
** 
** Name: load_x_end   Type: Surface traction
*Dsload, follower=NO, constant resultant=YES
_PickedSurf10, TRVEC, 500., 1., 0., 0.
** 
** OUTPUT REQUESTS
** 
*Restart, write, frequency=0
** 
** FIELD OUTPUT: F-Output-1
** 
*Output, field, variable=PRESELECT
** 
** HISTORY OUTPUT: H-Output-1
** 
*Output, history, variable=PRESELECT
*End Step
