*Heading
** Job name: 2D_SHEAR_ELASTIC_elemSize_20_160x120mm_intp_2_DIRECT Model name: 2D_SHEAR_ELASTIC
** Generated by: Abaqus/CAE 2017
*Preprint, echo=NO, model=NO, history=NO, contact=NO
**
** PARTS
**
*Part, name=rectangular
*End Part
**  
**
** ASSEMBLY
**
*Assembly, name=Assembly
**  
*Instance, name=rectangularInstance, part=rectangular
*Node
      1,           0.,           0.
      2,          20.,           0.
      3,          40.,           0.
      4,          60.,           0.
      5,          80.,           0.
      6,         100.,           0.
      7,         120.,           0.
      8,         140.,           0.
      9,         160.,           0.
     10,           0.,          20.
     11,          20.,          20.
     12,          40.,          20.
     13,          60.,          20.
     14,          80.,          20.
     15,         100.,          20.
     16,         120.,          20.
     17,         140.,          20.
     18,         160.,          20.
     19,           0.,          40.
     20,          20.,          40.
** ... 153 like lines cut
*Element, type=CPS8
 1,   1,   2,  11,  10,  64,  65,  66,  67
 2,   2,   3,  12,  11,  68,  69,  70,  65
 3,   3,   4,  13,  12,  71,  72,  73,  69
 4,   4,   5,  14,  13,  74,  75,  76,  72
 5,   5,   6,  15,  14,  77,  78,  79,  75
 6,   6,   7,  16,  15,  80,  81,  82,  78
 7,   7,   8,  17,  16,  83,  84,  85,  81
 8,   8,   9,  18,  17,  86,  87,  88,  84
 9,  10,  11,  20,  19,  66,  89,  90,  91
10,  11,  12,  21,  20,  70,  92,  93,  89
11,  12,  13,  22,  21,  73,  94,  95,  92
12,  13,  14,  23,  22,  76,  96,  97,  94
13,  14,  15,  24,  23,  79,  98,  99,  96
14,  15,  16,  25,  24,  82, 100, 101,  98
15,  16,  17,  26,  25,  85, 102, 103, 100
16,  17,  18,  27,  26,  88, 104, 105, 102
17,  19,  20,  29,  28,  90, 106, 107, 108
18,  20,  21,  30,  29,  93, 109, 110, 106
19,  21,  22,  31,  30,  95, 111, 112, 109
20,  22,  23,  32,  31,  97, 113, 114, 111
** ... 28 like lines cut
*Nset, nset=_PickedSet2, internal, generate
   1,  173,    1
*Elset, elset=_PickedSet2, internal, generate
  1,  48,   1
** Section: rectangularSection
*Solid Section, elset=_PickedSet2, material=Steel
1.,
*End Instance
**  
*Nset, nset=x_end, instance=rectangularInstance
   9,  18,  27,  36,  45,  54,  63,  87, 104, 121, 138, 155, 172
*Elset, elset=x_end, instance=rectangularInstance, generate
  8,  48,   8
*Nset, nset=x_start, instance=rectangularInstance
   1,  10,  19,  28,  37,  46,  55,  67,  91, 108, 125, 142, 159
*Elset, elset=x_start, instance=rectangularInstance, generate
  1,  41,   8
*Nset, nset=y_end, instance=rectangularInstance
  55,  56,  57,  58,  59,  60,  61,  62,  63, 158, 161, 163, 165, 167, 169, 171
 173,
*Elset, elset=y_end, instance=rectangularInstance, generate
 41,  48,   1
*Nset, nset=y_start, instance=rectangularInstance
  1,  2,  3,  4,  5,  6,  7,  8,  9, 64, 68, 71, 74, 77, 80, 83
 86,
*Elset, elset=y_start, instance=rectangularInstance, generate
 1,  8,  1
*End Assembly
** 
** MATERIALS
** 
*Material, name=Steel
*Density
 5e-09,
*Elastic
10000., 0.3
** 
** BOUNDARY CONDITIONS
** 
** Name: fix_x_end Type: Symmetry/Antisymmetry/Encastre
*Boundary
x_end, XSYMM
** Name: fix_x_start Type: Symmetry/Antisymmetry/Encastre
*Boundary
x_start, ZASYMM
** ----------------------------------------------------------------
** 
** STEP: Load
** 
*Step, name=Load, nlgeom=NO
Load.
*Static
1., 5., 1., 1.
** 
** BOUNDARY CONDITIONS
** 
** Name: move_x_end Type: Displacement/Rotation
*Boundary
x_end, 1, 1
x_end, 2, 2, 8.
** 
** OUTPUT REQUESTS
** 
*Restart, write, frequency=0
** 
** FIELD OUTPUT: F-Output-1
** 
*Output, field, variable=PRESELECT
** 
** HISTORY OUTPUT: H-Output-1
** 
*Output, history, variable=PRESELECT
*End Step
